/*--------------------------------*- C++ -*----------------------------------*\
| =========                 |                                                 |
| \\      /  F ield         | OpenFOAM: The Open Source CFD Toolbox           |
|  \\    /   O peration     | Version:  2.3.0                                 |
|   \\  /    A nd           | Web:      www.OpenFOAM.org                      |
|    \\/     M anipulation  |                                                 |
\*---------------------------------------------------------------------------*/
FoamFile
{
    version     2.0;
    format      ascii;
    class       dictionary;
    object      blockMeshDict;
}
// * * * * * * * * * * * * * * * * * * * * * * * * * * * * * * * * * * * * * //

convertToMeters 1;

vertices
(
    (   0.20521763554678                -10                  0 )  // 0 v1-z
    (                  1                -10                  0 )  // 1 v2-z
    (                 11                -10                  0 )  // 2 v3-z
    (   0.20521763554678 -0.0573301475551969                  0 )  // 3 v11-z
    (  -9.79478236445322                  0                  0 )  // 4 v0-z
    (                  0                  0                  0 )  // 5 v8-z
    (                  1                  0                  0 )  // 6 v9-z
    (                 11                  0                  0 )  // 7 v4-z
    (   0.20521763554678 0.0572581042226058                  0 )  // 8 v10-z
    (   0.20521763554678                 10                  0 )  // 9 v7-z
    (                  1                 10                  0 )  // 10 v6-z
    (                 11                 10                  0 )  // 11 v5-z
    (   0.20521763554678                -10               0.01 )  // 12 v1+z
    (                  1                -10               0.01 )  // 13 v2+z
    (                 11                -10               0.01 )  // 14 v3+z
    (   0.20521763554678 -0.0573301475551969               0.01 )  // 15 v11+z
    (  -9.79478236445322                  0               0.01 )  // 16 v0+z
    (                  0                  0               0.01 )  // 17 v8+z
    (                  1                  0               0.01 )  // 18 v9+z
    (                 11                  0               0.01 )  // 19 v4+z
    (   0.20521763554678 0.0572581042226058               0.01 )  // 20 v10+z
    (   0.20521763554678                 10               0.01 )  // 21 v7+z
    (                  1                 10               0.01 )  // 22 v6+z
    (                 11                 10               0.01 )  // 23 v5+z
);

edges
(
  arc 16 21 ( -4.79478236445322   8.66025403784439               0.01) // arc-h+z (v0+z v7+z)
  arc 16 12 ( -4.79478236445322  -8.66025403784439               0.01) // arc-l+z (v0+z v1+z)
  spline 17 20                      // uppercurve-1+z (v8+z v10+z)
     (
         ( 2.47234127703777e-06 0.000271677605560732               0.01 )
         ( 9.88934065837554e-06 0.000543348409607155               0.01 )
         ( 2.22509247945202e-05 0.000815005611033077               0.01 )
         ( 3.95569714372601e-05 0.00108664240956907               0.01 )
         ( 6.18073094408311e-05 0.00135825200619177               0.01 )
         ( 8.90017187634151e-05 0.00162982760353776               0.01 )
         ( 0.000121139930469694 0.00190136240632288               0.01 )
         ( 0.000158221626733068 0.00217284962175234               0.01 )
         ( 0.000200246440839158 0.00244428245993849               0.01 )
         ( 0.000247213957189241 0.00271565413431313               0.01 )
         ( 0.000299123711304361 0.00298695786204114               0.01 )
         ( 0.000355975189829993 0.00325818686443389               0.01 )
         ( 0.000417767830541094 0.00352933436736143               0.01 )
         ( 0.000484501022347816 0.00380039360166485               0.01 )
         ( 0.000556174105301066 0.00407135780356531               0.01 )
         ( 0.000632786370599714 0.00434222021507712               0.01 )
         ( 0.000714337060597037 0.00461297408441497               0.01 )
         ( 0.000800825368808433 0.0048836126664034               0.01 )
         ( 0.000892250439919584 0.00515412922288504               0.01 )
         ( 0.000988611369794445 0.00542451702312584               0.01 )
         ( 0.00108990720548463 0.00569476934422207               0.01 )
         ( 0.00119613694523868 0.00596487947150435               0.01 )
         ( 0.00130729953851189 0.00623484069894086               0.01 )
         ( 0.00142339388597679 0.00650464632953979               0.01 )
         ( 0.00154441883953399 0.00677428967575011               0.01 )
         ( 0.00167037320232355 0.00704376405986125               0.01 )
         ( 0.00180125572873674 0.00731306281440114               0.01 )
         ( 0.00193706512442854 0.0075821792825334               0.01 )
         ( 0.00207780004633018 0.00785110681845203               0.01 )
         ( 0.00222345910266269 0.00811983878777575               0.01 )
         ( 0.00237404085295045 0.00838836856793973               0.01 )
         ( 0.00252954380803561 0.00865668954858641               0.01 )
         ( 0.00268996643009256 0.00892479513195391               0.01 )
         ( 0.00285530713264354 0.00919267873326368               0.01 )
         ( 0.00302556428057388 0.00946033378110508               0.01 )
         ( 0.00320073619014855 0.00972775371781931               0.01 )
         ( 0.00338082112902849 0.00999493199988045               0.01 )
         ( 0.00356581731628813 0.0102618620982755               0.01 )
         ( 0.00375572292243248 0.0105285374988811               0.01 )
         ( 0.00395053606941576 0.0107949517028398               0.01 )
         ( 0.00415025483065962 0.0110610982269329               0.01 )
         ( 0.00435487723107231 0.0113269706039515               0.01 )
         ( 0.00456440124706814 0.0115925623830659               0.01 )
         ( 0.0047788248065877 0.0118578671301917               0.01 )
         ( 0.00499814578911811 0.0121228784283548               0.01 )
         ( 0.00522236202571402 0.0123875898780527               0.01 )
         ( 0.00545147129901929 0.0126519950976148               0.01 )
         ( 0.00568547134328867 0.0129160877235591               0.01 )
         ( 0.0059243598444102 0.0131798614109469               0.01 )
         ( 0.00616813443992836 0.0134433098337349               0.01 )
         ( 0.00641679271906714 0.0137064266851249               0.01 )
         ( 0.00667033222275398 0.0139692056779103               0.01 )
         ( 0.00692875044364427  0.014231640544821               0.01 )
         ( 0.00719204482614577 0.0144937250388637               0.01 )
         ( 0.00746021276644426 0.0147554529336619               0.01 )
         ( 0.00773325161252902 0.0150168180237907               0.01 )
         ( 0.00801115866421925 0.0152778141251107               0.01 )
         ( 0.00829393117319066 0.0155384350750975               0.01 )
         ( 0.00858156634300261 0.0157986747331692               0.01 )
         ( 0.00887406132912594 0.0160585269810106               0.01 )
         ( 0.00917141323897092 0.0163179857228945               0.01 )
         ( 0.00947361913191597 0.0165770448859997               0.01 )
         ( 0.00978067601933663 0.0168356984207262               0.01 )
         ( 0.0100925808646353 0.0170939403010069               0.01 )
         (  0.010409330583271  0.017351764524617               0.01 )
         ( 0.0107309220427902 0.0176091651134787               0.01 )
         ( 0.0110573520628575 0.0178661361139644               0.01 )
         ( 0.0113886174152872 0.0181226715971949               0.01 )
         ( 0.0117247148240753 0.0183787656593361               0.01 )
         ( 0.0120656409654319 0.0186344124218907               0.01 )
         ( 0.0124113924678139 0.0188896060319873               0.01 )
         ( 0.0127619659119584 0.0191443406626664               0.01 )
         ( 0.0131173578309166 0.0193986105131623               0.01 )
         ( 0.0134775647100881  0.019652409809182               0.01 )
         ( 0.0138425829872555 0.0199057328031801               0.01 )
         ( 0.0142124090526199 0.0201585737746308               0.01 )
         ( 0.0145870392488361  0.020410927030296               0.01 )
         ( 0.0149664698710496 0.0206627869044897               0.01 )
         ( 0.0153506971669323 0.0209141477593388               0.01 )
         ( 0.0157397173367201 0.0211650039850408               0.01 )
         ( 0.0161335265332506  0.021415350000117               0.01 )
         ( 0.0165321208620008 0.0216651802516626               0.01 )
         (  0.016935496381126  0.021914489215593               0.01 )
         ( 0.0173436491014983 0.0221632713968858               0.01 )
         ( 0.0177565749867465 0.0224115213298202               0.01 )
         ( 0.0181742699532957 0.0226592335782113               0.01 )
         ( 0.0185967298704078 0.0229064027356413               0.01 )
         ( 0.0190239505602226  0.023153023425687               0.01 )
         ( 0.0194559277977986 0.0233990903021431               0.01 )
         ( 0.0198926573111552 0.0236445980492415               0.01 )
         ( 0.0203341347813149 0.0238895413818675               0.01 )
         ( 0.0207803558423457 0.0241339150457708               0.01 )
         ( 0.0212313160814045  0.024377713817774               0.01 )
         ( 0.0216870110387811 0.0246209325059762               0.01 )
         ( 0.0221474362079415 0.0248635659499526               0.01 )
         ( 0.0226125870355732 0.0251056090209513               0.01 )
         ( 0.0230824589216298 0.0253470566220843               0.01 )
         ( 0.0235570472193766 0.0255879036885162               0.01 )
         ( 0.0240363472354367 0.0258281451876479               0.01 )
         ( 0.0245203542298373 0.0260677761192965               0.01 )
         ( 0.0250090634160565 0.0263067915158713               0.01 )
         ( 0.0255024699610706 0.0265451864425456               0.01 )
         ( 0.0260005689854023 0.0267829559974247               0.01 )
         ( 0.0265033555631684 0.0270200953117095               0.01 )
         ( 0.0270108247221288 0.0272565995498562               0.01 )
         ( 0.0275229714437358 0.0274924639097322               0.01 )
         ( 0.0280397906631835 0.0277276836227671               0.01 )
         ( 0.0285612772694579 0.0279622539541009               0.01 )
         ( 0.0290874261053876 0.0281961702027267               0.01 )
         ( 0.0296182319676945 0.0284294277016305               0.01 )
         ( 0.0301536896070458  0.028662021817926               0.01 )
         ( 0.0306937937281053 0.0288939479529859               0.01 )
         ( 0.0312385389895863 0.0291252015425691               0.01 )
         ( 0.0317879200043038  0.029355778056943               0.01 )
         ( 0.0323419313392285  0.029585673001003               0.01 )
         ( 0.0329005675155401 0.0298148819143867               0.01 )
         ( 0.0334638230086813 0.0300434003715847               0.01 )
         (  0.034031692248413 0.0302712239820472               0.01 )
         (  0.034604169618869 0.0304983483902863               0.01 )
         ( 0.0351812494586115 0.0307247692759744               0.01 )
         ( 0.0357629260606872 0.0309504823540382               0.01 )
         ( 0.0363491936726839 0.0311754833747495               0.01 )
         ( 0.0369400464967871 0.0313997681238107               0.01 )
         ( 0.0375354786898375 0.0316233324224371               0.01 )
         ( 0.0381354843633887 0.0318461721274349               0.01 )
         ( 0.0387400575837656 0.0320682831312754               0.01 )
         (  0.039349192372123 0.0322896613621645               0.01 )
         ( 0.0399628827045043 0.0325103027841087               0.01 )
         (  0.040581122511902 0.0327302033969774               0.01 )
         ( 0.0412039056803167   0.03294935923656               0.01 )
         ( 0.0418312260508185 0.0331677663746208               0.01 )
         (  0.042463077419607  0.033385420918948               0.01 )
         ( 0.0430994535380734 0.0336023190134002               0.01 )
         ( 0.0437403481128619 0.0338184568379483               0.01 )
         ( 0.0443857548059322 0.0340338306087135               0.01 )
         ( 0.0450356672346216 0.0342484365780015               0.01 )
         (  0.045690078971709 0.0344622710343328               0.01 )
         ( 0.0463489835454778 0.0346753303024689               0.01 )
         ( 0.0470123744397801 0.0348876107434354               0.01 )
         (  0.047680245094101 0.0350991087545396               0.01 )
         ( 0.0483525889036238 0.0353098207693866               0.01 )
         ( 0.0490293992192952 0.0355197432578894               0.01 )
         ( 0.0497106693478908 0.0357288727262765               0.01 )
         ( 0.0503963925520816 0.0359372057170957               0.01 )
         ( 0.0510865620505004  0.036144738809213               0.01 )
         ( 0.0517811710178092 0.0363514686178097               0.01 )
         (  0.052480212584766  0.036557391794374               0.01 )
         ( 0.0531836798382939 0.0367625050266898               0.01 )
         ( 0.0538915658215481  0.036966805038822               0.01 )
         ( 0.0546038635339858 0.0371702885910977               0.01 )
         ( 0.0553205659314349 0.0373729524800839               0.01 )
         ( 0.0560416659261635 0.0375747935385619               0.01 )
         ( 0.0567671563869507 0.0377758086354981               0.01 )
         ( 0.0574970301391563  0.037975994676011               0.01 )
         ( 0.0582312799647924  0.038175348601335               0.01 )
         ( 0.0589698986025943 0.0383738673887806               0.01 )
         ( 0.0597128787480927 0.0385715480516911               0.01 )
         ( 0.0604602130536855 0.0387683876393964               0.01 )
         ( 0.0612118941287111 0.0389643832371627               0.01 )
         ( 0.0619679145395209 0.0391595319661394               0.01 )
         ( 0.0627282668095529 0.0393538309833024               0.01 )
         ( 0.0634929434194059 0.0395472774813944               0.01 )
         ( 0.0642619368069138 0.0397398686888617               0.01 )
         ( 0.0650352393672202 0.0399316018697881               0.01 )
         ( 0.0658128434528537  0.040122474323825               0.01 )
         ( 0.0665947413738036 0.0403124833861194               0.01 )
         ( 0.0673809253975959 0.0405016264272377               0.01 )
         ( 0.0681713877493697 0.0406899008530871               0.01 )
         ( 0.0689661206119542  0.040877304104834               0.01 )
         ( 0.0697651161259462 0.0410638336588188               0.01 )
         (  0.070568366389787 0.0412494870264687               0.01 )
         ( 0.0713758634598416 0.0414342617542064               0.01 )
         ( 0.0721875993504767 0.0416181554233569               0.01 )
         ( 0.0730035660341396 0.0418011656500512               0.01 )
         (  0.073823755441438 0.0419832900851267               0.01 )
         ( 0.0746481594612193 0.0421645264140256               0.01 )
         ( 0.0754767699406511   0.04234487235669               0.01 )
         ( 0.0763095786853019 0.0425243256674545               0.01 )
         ( 0.0771465774592219  0.042702884134936               0.01 )
         ( 0.0779877579850248 0.0428805455819214               0.01 )
         ( 0.0788331119439691 0.0430573078652521               0.01 )
         ( 0.0796826309760409 0.0432331688757062               0.01 )
         ( 0.0805363066800363 0.0434081265378782               0.01 )
         ( 0.0813941306136446 0.0435821788100566               0.01 )
         ( 0.0822560942935318 0.0437553236840984               0.01 )
         ( 0.0831221891954242 0.0439275591853019               0.01 )
         ( 0.0839924067541932 0.0440988833722768               0.01 )
         ( 0.0848667383639396 0.0442692943368119               0.01 )
         ( 0.0857451753780789 0.0444387902037411               0.01 )
         ( 0.0866277091094268 0.0446073691308067               0.01 )
         ( 0.0875143308302849 0.0447750293085209               0.01 )
         ( 0.0884050317725273 0.0449417689600247               0.01 )
         ( 0.0892998031276874 0.0451075863409454               0.01 )
         ( 0.0901986360470443 0.0452724797392516               0.01 )
         ( 0.0911015216417111 0.0454364474751063               0.01 )
         ( 0.0920084509827227 0.0455994879007181               0.01 )
         ( 0.0929194151011236 0.0457615994001908               0.01 )
         (  0.093834404988057 0.0459227803893707               0.01 )
         (  0.094753411594854 0.0460830293156923               0.01 )
         ( 0.0956764258331225 0.0462423446580222               0.01 )
         ( 0.0966034385748378 0.0464007249265016               0.01 )
         ( 0.0975344406524326 0.0465581686623866               0.01 )
         ( 0.0984694228588872 0.0467146744378872               0.01 )
         ( 0.0994083759478213  0.046870240856005               0.01 )
         (  0.100351290633585 0.0470248665503686               0.01 )
         (   0.10129815759135 0.0471785501850683               0.01 )
         (  0.102248967457205 0.0473312904544888               0.01 )
         (  0.103203710828243 0.0474830860831412               0.01 )
         (  0.104162378262657 0.0476339358254926               0.01 )
         (  0.105124960279837 0.0477838384657955               0.01 )
         (  0.106091447360457 0.0479327928179153               0.01 )
         (  0.107061829946573 0.0480807977251566               0.01 )
         (  0.108036098441717 0.0482278520600887               0.01 )
         (  0.109014243210994 0.0483739547243697               0.01 )
         (  0.109996254581171 0.0485191046485697               0.01 )
         (   0.11098212284078 0.0486633007919927               0.01 )
         (  0.111971838240211 0.0488065421424977               0.01 )
         (  0.112965390991805 0.0489488277163191               0.01 )
         (  0.113962771269957 0.0490901565578858               0.01 )
         (  0.114963969211209 0.0492305277396395               0.01 )
         (   0.11596897491435 0.0493699403618528               0.01 )
         (  0.116977778440511 0.0495083935524457               0.01 )
         (  0.117990369813265 0.0496458864668016               0.01 )
         (  0.119006739018727 0.0497824182875836               0.01 )
         (  0.120026876005651 0.0499179882245485               0.01 )
         (   0.12105077068553 0.0500525955143618               0.01 )
         (  0.122078412932694 0.0501862394204109               0.01 )
         (  0.123109792584415 0.0503189192326192               0.01 )
         (  0.124144899441003 0.0504506342672582               0.01 )
         (  0.125183723265909 0.0505813838667604               0.01 )
         (  0.126226253785823 0.0507111673995315               0.01 )
         (  0.127272480690782  0.050839984259762               0.01 )
         (  0.128322393634265 0.0509678338672388               0.01 )
         (    0.1293759822333 0.0510947156671566               0.01 )
         (  0.130433236068564 0.0512206291299293               0.01 )
         (  0.131494144684489 0.0513455737510004               0.01 )
         (  0.132558697589362 0.0514695490506547               0.01 )
         (   0.13362688425543 0.0515925545738287               0.01 )
         (  0.134698694119006 0.0517145898899216               0.01 )
         (   0.13577411658057 0.0518356545926062               0.01 )
         (  0.136853141004876 0.0519557482996401               0.01 )
         (   0.13793575672106 0.0520748706526764               0.01 )
         (  0.139021953022738 0.0521930213170754               0.01 )
         (  0.140111719168118 0.0523101999817158               0.01 )
         (  0.141205044380106 0.0524264063588065               0.01 )
         (  0.142301917846409 0.0525416401836985               0.01 )
         (  0.143402328719645 0.0526559012146973               0.01 )
         (  0.144506266117449 0.0527691892328757               0.01 )
         (  0.145613719122581 0.0528815040418864               0.01 )
         (  0.146724676783034 0.0529928454677759               0.01 )
         (  0.147839128112142 0.0531032133587985               0.01 )
         (  0.148957062088689 0.0532126075852303               0.01 )
         (  0.150078467657017 0.0533210280391848               0.01 )
         (  0.151203333727139 0.0534284746344281               0.01 )
         (  0.152331649174841 0.0535349473061955               0.01 )
         (  0.153463402841801 0.0536404460110078               0.01 )
         (  0.154598583535695 0.0537449707264895               0.01 )
         (  0.155737180030304 0.0538485214511869               0.01 )
         (  0.156879181065633 0.0539510982043871               0.01 )
         (  0.158024575348017 0.0540527010259379               0.01 )
         (  0.159173351550234 0.0541533299760686               0.01 )
         (  0.160325498311615 0.0542529851352113               0.01 )
         (  0.161481004238162 0.0543516666038239               0.01 )
         (  0.162639857902654  0.054449374502213               0.01 )
         (  0.163802047844764 0.0545461089703586               0.01 )
         (  0.164967562571171 0.0546418701677393               0.01 )
         (  0.166136390555676 0.0547366582731587               0.01 )
         (   0.16730852023931 0.0548304734845731               0.01 )
         (  0.168483940030457 0.0549233160189197               0.01 )
         (  0.169662638304959 0.0550151861119464               0.01 )
         (  0.170844603406241 0.0551060840180428               0.01 )
         (  0.172029823645416 0.0551960100100721               0.01 )
         (   0.17321828730141 0.0552849643792041               0.01 )
         (  0.174409982621072 0.0553729474347499               0.01 )
         (  0.175604897819291 0.0554599595039974               0.01 )
         (  0.176803021079115 0.0555460009320485               0.01 )
         (  0.178004340551866 0.0556310720816572               0.01 )
         (  0.179208844357256 0.0557151733330693               0.01 )
         (  0.180416520583507 0.0557983050838636               0.01 )
         (   0.18162735728747 0.0558804677487939               0.01 )
         (  0.182841342494736 0.0559616617596331               0.01 )
         (  0.184058464199764 0.0560418875650184               0.01 )
         (  0.185278710365992 0.0561211456302982               0.01 )
         (  0.186502068925961 0.0561994364373797               0.01 )
         (  0.187728527781431 0.0562767604845791               0.01 )
         (  0.188958074803502  0.056353118286473               0.01 )
         (  0.190190697832736 0.0564285103737505               0.01 )
         (  0.191426384679272  0.056502937293068               0.01 )
         (  0.192665123122954  0.056576399606905               0.01 )
         (  0.193906900913443 0.0566488978934219               0.01 )
         (  0.195151705770347 0.0567204327463186               0.01 )
         (  0.196399525383334 0.0567910047746958               0.01 )
         (  0.197650347412262 0.0568606146029172               0.01 )
         (  0.198904159487295 0.0569292628704737               0.01 )
         (  0.200160949209028 0.0569969502318492               0.01 )
         (  0.201420704148607 0.0570636773563882               0.01 )
         (  0.202683411847857  0.057129444928165               0.01 )
         (  0.203949059819399 0.0571942536458546               0.01 )

     )

  spline 17 15                      // lowercurve-1+z (v8+z v11+z)
     (
         ( 2.47234127703777e-06 -0.000264801992774624               0.01 )
         ( 9.88934065837554e-06 -0.000529598256312623               0.01 )
         ( 2.22509247945202e-05 -0.000794383061580627               0.01 )
         ( 3.95569714372601e-05 -0.00105915067997183               0.01 )
         ( 6.18073094408311e-05 -0.00132389538351055               0.01 )
         ( 8.90017187634151e-05 -0.00158861144506132               0.01 )
         ( 0.000121139930469694 -0.00185329313854352               0.01 )
         ( 0.000158221626733068 -0.00211793473913725               0.01 )
         ( 0.000200246440839158 -0.00238253052349684               0.01 )
         ( 0.000247213957189241 -0.00264707476995946               0.01 )
         ( 0.000299123711304361 -0.00291156175875529               0.01 )
         ( 0.000355975189829993 -0.00317598577221786               0.01 )
         ( 0.000417767830541094 -0.00344034109499369               0.01 )
         ( 0.000484501022347816 -0.00370462201425249               0.01 )
         ( 0.000556174105301066 -0.00396882281989473               0.01 )
         ( 0.000632786370599714 -0.00423293780476359               0.01 )
         ( 0.000714337060597037 -0.00449696126485193               0.01 )
         ( 0.000800825368808433 -0.00476088749951204               0.01 )
         ( 0.000892250439919584 -0.00502471081166484               0.01 )
         ( 0.000988611369794445 -0.00528842550800691               0.01 )
         ( 0.00108990720548463 -0.00555202589922004               0.01 )
         ( 0.00119613694523868 -0.00581550630017865               0.01 )
         ( 0.00130729953851189 -0.00607886103015729               0.01 )
         ( 0.00142339388597679 -0.00634208441303825               0.01 )
         ( 0.00154441883953399 -0.00660517077751857               0.01 )
         ( 0.00167037320232355 -0.0068681144573168               0.01 )
         ( 0.00180125572873674 -0.00713090979137937               0.01 )
         ( 0.00193706512442854 -0.00739355112408697               0.01 )
         ( 0.00207780004633018 -0.00765603280545983               0.01 )
         ( 0.00222345910266269 -0.00791834919136359               0.01 )
         ( 0.00237404085295045 -0.00818049464371388               0.01 )
         ( 0.00252954380803561 -0.00844246353068127               0.01 )
         ( 0.00268996643009256 -0.00870425022689506               0.01 )
         ( 0.00285530713264354 -0.00896584911364761               0.01 )
         ( 0.00302556428057388 -0.00922725457909708               0.01 )
         ( 0.00320073619014855 -0.00948846101847087               0.01 )
         ( 0.00338082112902849 -0.00974946283426758               0.01 )
         ( 0.00356581731628813 -0.0100102544364596               0.01 )
         ( 0.00375572292243248 -0.0102708302426936               0.01 )
         ( 0.00395053606941576 -0.0105311846784928               0.01 )
         ( 0.00415025483065962 -0.0107913121774564               0.01 )
         ( 0.00435487723107231  -0.01105120718146               0.01 )
         ( 0.00456440124706814 -0.0113108641408549               0.01 )
         ( 0.0047788248065877 -0.0115702775146672               0.01 )
         ( 0.00499814578911811 -0.0118294417707956               0.01 )
         ( 0.00522236202571402 -0.0120883513862098               0.01 )
         ( 0.00545147129901929 -0.0123470008471472               0.01 )
         ( 0.00568547134328867 -0.0126053846493096               0.01 )
         ( 0.0059243598444102 -0.0128634972980591               0.01 )
         ( 0.00616813443992836 -0.0131213333086135               0.01 )
         ( 0.00641679271906714 -0.013378887206241               0.01 )
         ( 0.00667033222275398 -0.013636153526454               0.01 )
         ( 0.00692875044364427 -0.0138931268152031               0.01 )
         ( 0.00719204482614577 -0.0141498016290691               0.01 )
         ( 0.00746021276644426 -0.0144061725354554               0.01 )
         ( 0.00773325161252902 -0.0146622341127792               0.01 )
         ( 0.00801115866421925 -0.0149179809506626               0.01 )
         ( 0.00829393117319066 -0.0151734076501219               0.01 )
         ( 0.00858156634300261 -0.0154285088237569               0.01 )
         ( 0.00887406132912594 -0.0156832790959397               0.01 )
         ( 0.00917141323897092 -0.0159377131030023               0.01 )
         ( 0.00947361913191597 -0.0161918054934233               0.01 )
         ( 0.00978067601933663 -0.016445550928014               0.01 )
         ( 0.0100925808646353 -0.0166989440801044               0.01 )
         (  0.010409330583271 -0.016951979635727               0.01 )
         ( 0.0107309220427902 -0.0172046522938012               0.01 )
         ( 0.0110573520628575 -0.0174569567663158               0.01 )
         ( 0.0113886174152872 -0.0177088877785113               0.01 )
         ( 0.0117247148240753 -0.0179604400690612               0.01 )
         ( 0.0120656409654319 -0.0182116083902527               0.01 )
         ( 0.0124113924678139 -0.0184623875081657               0.01 )
         ( 0.0127619659119584 -0.0187127722028518               0.01 )
         ( 0.0131173578309166 -0.0189627572685124               0.01 )
         ( 0.0134775647100881 -0.0192123375136749               0.01 )
         ( 0.0138425829872555 -0.0194615077613695               0.01 )
         ( 0.0142124090526199 -0.0197102628493041               0.01 )
         ( 0.0145870392488361 -0.0199585976300379               0.01 )
         ( 0.0149664698710496 -0.0202065069711556               0.01 )
         ( 0.0153506971669323 -0.0204539857554388               0.01 )
         ( 0.0157397173367201 -0.0207010288810381               0.01 )
         ( 0.0161335265332506 -0.020947631261643               0.01 )
         ( 0.0165321208620008 -0.0211937878266516               0.01 )
         (  0.016935496381126 -0.0214394935213389               0.01 )