/*--------------------------------*- C++ -*----------------------------------*\
| =========                 |                                                 |
| \\      /  F ield         | OpenFOAM: The Open Source CFD Toolbox           |
|  \\    /   O peration     | Version:  v1806                                 |
|   \\  /    A nd           | Web:      www.OpenFOAM.com                      |
|    \\/     M anipulation  |                                                 |
\*---------------------------------------------------------------------------*/
FoamFile
{
    version     2.0;
    format      ascii;
    class       dictionary;
    note        "mesh decomposition control dictionary";
    object      decomposeParDict;
}
// * * * * * * * * * * * * * * * * * * * * * * * * * * * * * * * * * * * * * //

//- The total number of domains (mandatory)
numberOfSubdomains 12;

//- The decomposition method (mandatory)
method          scotch;
// method          hierarchical;
//method          simple;
// method          metis;
// method          manual;
// method          multiLevel;
// method          structured;  // does 2D decomposition of structured mesh
//simpleCoeffs
//{
//    n           (2 2 1);
//    delta       0.001;  //< default value = 0.001
//}

